java/SFINA/experiments/experiment-Case30RateReduction/output/time_22/iteration_2/flow/links.txt
id,current,real_power_from,reactive_power_from,real_power_to,reactive_power_to,resistance,reactance,susceptance,rateA,rateB,rateC,ratio,angle,angmin,angmax
1,18.570621746185356,3.4446767828513636,-2.643834209338003,-3.442041951883961,-0.34826129775997144,0.02,0.06,0.03,130.0,130.0,75.8243875724475,0.0,0.0,-360.0,360.0
2,44.689131707798715,10.384325739558786,1.165432335406802,-10.328064080426545,-2.933459402098577,0.05,0.19,0.02,130.0,130.0,75.8243875724475,0.0,0.0,-360.0,360.0
3,52.08432721099999,12.130650534210616,1.0809291384090027,-12.039760765133288,-2.8022685058940224,0.06,0.17,0.02,65.0,65.0,37.91219378622375,0.0,0.0,-360.0,360.0
4,35.026532690998124,7.928058863541658,1.7334788614425465,-7.921351017468465,-1.706647477149774,0.01,0.04,0.0,130.0,130.0,75.8243875724475,0.0,0.0,-360.0,360.0
5,48.90472662823299,11.301773449373648,1.742010094090951,-11.23414909814514,-3.449817682336387,0.05,0.2,0.02,130.0,130.0,75.8243875724475,0.0,0.0,-360.0,360.0
6,63.61157457994813,14.800274035365806,1.4800611714107832,-14.66515474640431,-3.048825471200399,0.06,0.18,0.02,65.0,65.0,37.91219378622375,0.0,0.0,-360.0,360.0
7,65.42711407146284,14.970908317846256,2.2297745460041347,-14.947503550925603,-2.136155478321534,0.01,0.04,0.0,90.0,90.0,52.49380678092522,0.0,0.0,-360.0,360.0
8,51.05494653820951,11.234147454095197,3.6356991388265367,-11.16094918206559,-4.427885088505253,0.05,0.12,0.01,70.0,70.0,40.828516385164036,0.0,0.0,-360.0,360.0
9,56.269952217986564,11.692754990616635,5.649551247953964,-11.639051706940098,-6.472112880790373,0.03,0.08,0.01,130.0,130.0,75.8243875724475,0.0,0.0,-360.0,360.0
10,153.04507768000303,24.82230991469614,24.42809638328978,-24.694245778648284,-23.915839839098336,0.01,0.04,0.0,32.0,32.0,18.66446463321785,0.0,0.0,-360.0,360.0
11,49.429436247981634,11.403571566783551,-0.2956141246012629,-11.403571566783548,0.5761441822743679,0.0,0.21,0.0,65.0,65.0,37.91219378622375,0.0,0.0,-360.0,360.0
12,28.24539452993256,6.516327296447496,-0.168917129318382,-6.516327296447496,0.4131882412529417,0.0,0.56,0.0,32.0,32.0,18.66446463321785,0.0,0.0,-360.0,360.0
13,0.0,0.0,-0.0,0.0,-0.0,0.0,0.21,0.0,65.0,65.0,37.91219378622375,0.0,0.0,-360.0,360.0
14,49.429448406325974,11.403575719988632,-0.5761176380574412,-11.403575719988632,0.7230620262703497,0.0,0.11,0.0,65.0,65.0,37.91219378622375,0.0,0.0,-360.0,360.0
15,11.656905514450443,-2.609806122921313,0.6791790241434146,2.6098061229213134,-0.6598625128527167,0.0,0.26,0.0,65.0,65.0,37.91219378622375,0.0,0.0,-360.0,360.0
16,163.7139654756025,-36.99999954030383,-7.76747045354575,36.99999954030383,9.819049635976505,0.0,0.14,0.0,65.0,65.0,37.91219378622375,0.0,0.0,-360.0,360.0
17,21.13678093020298,4.632990411185011,1.5364828050395167,-4.603678257419134,-1.4729731385467848,0.12,0.26,0.0,32.0,32.0,18.66446463321785,0.0,0.0,-360.0,360.0
18,27.201695519671063,6.190386437614285,1.067166159427023,-6.162067380991613,-1.0145736256992017,0.07,0.13,0.0,32.0,32.0,18.66446463321785,0.0,0.0,-360.0,360.0
19,54.04184633234847,12.366815381724548,-1.6762703182986087,-12.223103836989434,1.9956293065988617,0.09,0.2,0.0,32.0,32.0,18.66446463321785,0.0,0.0,-360.0,360.0
20,7.002620663521649,-1.596320610336166,-0.12702425430957548,1.602218989333433,0.13238641703436335,0.22,0.2,0.0,16.0,16.0,9.332232316608925,0.0,0.0,-360.0,360.0
21,41.51059422220571,8.723106346305839,-3.7956267945184177,-8.647736664920387,3.974629787808862,0.08,0.19,0.0,16.0,16.0,9.332232316608925,0.0,0.0,-360.0,360.0
22,52.8339639116469,12.10216914077223,-0.8175563799251818,-11.934285697761874,1.153323265945892,0.11,0.22,0.0,16.0,16.0,9.332232316608925,0.0,0.0,-360.0,360.0
23,39.53727318093996,8.734289104240728,-2.05331800975045,-8.68300846042571,2.1644260713496535,0.06,0.13,0.0,16.0,16.0,9.332232316608925,0.0,0.0,-360.0,360.0
24,24.84836933973973,-0.8169885864459266,-5.564423602069587,0.8271161699746173,5.588054630303197,0.03,0.07,0.0,32.0,32.0,18.66446463321785,0.0,0.0,-360.0,360.0
25,30.697934261660635,3.07348645489483,6.396250605074421,-3.027115119308756,-6.288050822040246,0.09,0.21,0.0,32.0,32.0,18.66446463321785,0.0,0.0,-360.0,360.0
26,42.66015584803222,0.382112056769486,9.854230850562459,-0.35226132913679736,-9.774628910208625,0.03,0.08,0.0,32.0,32.0,18.66446463321785,0.0,0.0,-360.0,360.0
27,56.69700661540466,6.948176774256592,-11.113196869597715,-6.89545010871018,11.236225755872677,0.03,0.07,0.0,32.0,32.0,18.66446463321785,0.0,0.0,-360.0,360.0
28,36.55191883885386,1.7161456978824776,-8.273498442704087,-1.6650120009369522,8.383070650444498,0.07,0.15,0.0,32.0,32.0,18.66446463321785,0.0,0.0,-360.0,360.0
29,106.72577369535617,-10.604540936575646,-22.436222023813215,10.66681789811539,22.560775946892704,0.01,0.02,0.0,32.0,32.0,18.66446463321785,0.0,0.0,-360.0,360.0
30,68.65775063993424,-15.742291455745322,-0.8002164561615097,16.000023212321814,1.3156799693144945,0.1,0.2,0.0,16.0,16.0,9.332232316608925,0.0,0.0,-360.0,360.0
31,67.5874570895075,12.588176974003765,9.55493166516375,-12.288466271618018,-9.105365611585132,0.12,0.18,0.0,16.0,16.0,9.332232316608925,0.0,0.0,-360.0,360.0
32,41.22982791490289,9.446112990187473,1.9268916264243339,-9.325288439635086,-1.6759483291232284,0.13,0.27,0.0,16.0,16.0,9.332232316608925,0.0,0.0,-360.0,360.0
33,19.183939245014024,3.5885333801860293,2.4428639811682116,-3.5503021763547458,-2.376462416619142,0.19,0.33,0.0,16.0,16.0,9.332232316608925,0.0,0.0,-360.0,360.0
34,19.18393967568615,3.5503022374815143,2.3764624977215703,-3.499998019655416,-2.3000000866259023,0.25,0.38,0.0,16.0,16.0,9.332232316608925,0.0,0.0,-360.0,360.0
35,58.94055789863492,-13.404788640806801,2.5452469165117577,13.613723046215512,-2.146372142549676,0.11,0.21,0.0,16.0,16.0,9.332232316608925,0.0,0.0,-360.0,360.0
36,0.0,0.0,0.0,0.0,0.0,0.0,0.4,0.0,65.0,65.0,37.91219378622375,0.0,0.0,-360.0,360.0
37,27.36826322656499,6.17388200329721,1.6840278133304396,-6.083785912230454,-1.5120261849302672,0.22,0.42,0.0,16.0,16.0,9.332232316608925,0.0,0.0,-360.0,360.0
38,31.29068423527844,7.1223949504872435,1.6745629326654436,-6.951090403779455,-1.3533669075883437,0.32,0.6,0.0,16.0,16.0,9.332232316608925,0.0,0.0,-360.0,360.0
39,16.302915792211763,3.6837859122304057,0.6120261849302001,-3.648909596220512,-0.54663309241165,0.24,0.45,0.0,16.0,16.0,9.332232316608925,0.0,0.0,-360.0,360.0
40,209.9550999365839,-29.999978588637404,-29.99998487952773,31.41050864219881,33.04479985415419,0.06,0.2,0.02,32.0,32.0,18.66446463321785,0.0,0.0,-360.0,360.0
41,145.5880367741041,24.798729947200037,21.9514292406114,-24.562515429162936,-22.171071143229966,0.02,0.06,0.01,32.0,32.0,18.66446463321785,0.0,0.0,-360.0,360.0
